96
 C   5.388268   5.378522  12.206938
 C   5.388268   5.378522  12.206938
 C   9.318474   2.503716   9.327821
 C  12.195997   5.366236   5.367186
 C   9.323606   9.321462   2.498030
 C   5.370083  12.198085   5.361682
 C   2.513229   9.331211   9.342961
 C   2.983560   6.735594  13.451763
 C   6.732948   2.972312  13.447306
 C   6.224954   6.218704   9.754025
 C   7.964427   1.253383  11.736006
 C  11.724368   1.249392   7.964990
 C   8.476947   4.963015   8.481646
 C  13.439556   2.959767   6.722452
 C  13.441308   6.722614   2.961597
 C   9.746027   6.213887   6.212062
 C  11.729600   7.964800   1.248550
 C   7.964047  11.726558   1.246859
 C   8.479223   8.478716   4.954408
 C   6.720923  13.440126   2.956471
 C   2.966137  13.443483   6.721916
 C   6.217126   9.749207   6.210394
 C   1.255604  11.735415   7.975362
 C   1.262887   7.975706  11.750505
 C   4.970883   8.482220   8.486579
 C   6.411597   4.582027  11.587654
 C   4.596784   6.407041  11.592109
 C   5.167538   5.163022  13.448485
 C  10.116468   3.122299   8.289236
 C   8.284621   3.127098  10.128689
 C   9.539502   1.251872   9.547669
 C  11.577991   6.399950   4.570977
 C  11.576161   4.570997   6.400100
 C  13.440916   5.145032   5.146709
 C   8.287324  10.119265   3.116830
 C  10.121967   8.286533   3.118295
 C   9.544217   9.542637   1.248569
 C   4.578414  11.581722   6.397202
 C   6.401365  11.578006   4.565732
 C   5.146478  13.442102   5.141536
 C   3.139977   8.292334  10.142200
 C   3.131864  10.127911   8.297681
 C   1.258264   9.555953   9.566358
 C   1.559568   7.137662  14.069009
 C   4.047891   5.987239  14.066681
 C   3.311724   6.939896  12.218737
 C   5.982760   4.044391  14.065732
 C   7.133857   1.553510  14.065502
 C   6.941055   3.294448  12.210775
 C   5.032562   6.809109  10.365989
 C   6.812506   5.020142  10.360860
 C   6.758157   6.755270   8.549707
 C   7.556214   0.626887  13.144742
 C   8.719899   0.626496  10.664309
 C   7.750177   2.502142  11.420234
 C  10.655158   0.625376   8.722189
 C  13.137836   0.624015   7.555069
 C  11.406707   2.494471   7.751885
 C   7.876408   4.357520   9.692435
 C   9.683154   4.351177   7.879314
 C   7.946248   6.162204   7.945753
 C  14.061289   1.546160   7.129193
 C  14.062194   4.026859   5.966852
 C  12.198441   3.282702   6.935223
 C  14.062649   5.966400   4.029232
 C  14.062586   7.129618   1.547189
 C  12.201569   6.934960   3.282865
 C  10.351112   5.011645   6.806841
 C  10.353070   6.806954   5.009111
 C   8.547369   6.752608   6.748642
 C  13.140639   7.555869   0.624087
 C  10.660369   8.721614   0.624463
 C  11.411808   7.750895   2.492920
 C   8.720797  10.658534   0.624105
 C   7.554825  13.138950   0.622754
 C   7.751186  11.408464   2.490122
 C   9.686806   7.877603   4.346374
 C   7.878102   9.685450   4.345129
 C   7.946830   7.946788   6.153726
 C   7.127858  14.061444   1.544669
 C   5.963654  14.062610   4.024239
 C   6.935029  12.199539   3.277818
 C   4.028766  14.063420   5.965117
 C   1.550097  14.063991   7.130025
 C   3.292180  12.205802   6.933855
 C   6.808300  10.353116   5.006335
 C   5.018522  10.357734   6.805310
 C   6.754535   8.549614   6.748505
 C   0.627423  13.143860   7.560305
 C   0.628181  10.670203   8.739419
 C   2.504321  11.417864   7.757021
 C   0.630083   8.737879  10.682159
 C   0.632804   7.562767  13.152546
 C   2.517815   7.754903  11.433942
 C   4.359830   9.691860   7.882624
 C   4.369664   7.879395   9.700875
 C   6.166983   7.948500   7.947376
