379
PDB File
 C   18.197948    8.667975   16.499952
 C    4.301988   19.238945   10.817968
 C   17.449951   15.742954    7.756978
 C    1.916994   11.446966   16.499952
 C   15.812953    0.875997   10.817968
 C    2.664992    4.371987    7.756978
 C    1.916994    8.667975    3.614990
 C   15.812953   19.238945    9.295973
 C    2.664992   15.742954   12.357964
 C   18.197948   11.446966    3.614990
 C    4.301988    0.875997    9.295973
 C   17.449951    4.371987   12.357964
 C   16.499952   18.197948    8.667975
 C   10.817968    4.301988   19.238945
 C    7.756978   17.449951   15.742954
 C   16.499952    1.916994   11.446966
 C   10.817968   15.812953    0.875997
 C    7.756978    2.664992    4.371987
 C    3.614990    1.916994    8.667975
 C    9.295973   15.812953   19.238945
 C   12.357964    2.664992   15.742954
 C    3.614990   18.197948   11.446966
 C    9.295973    4.301988    0.875997
 C   12.357964   17.449951    4.371987
 C    8.667975   16.499952   18.197948
 C   19.238945   10.817968    4.301988
 C   15.742954    7.756978   17.449951
 C   11.446966   16.499952    1.916994
 C    0.875997   10.817968   15.812953
 C    4.371987    7.756978    2.664992
 C    8.667975    3.614990    1.916994
 C   19.238945    9.295973   15.812953
 C   15.742954   12.357964    2.664992
 C   11.446966    3.614990   18.197948
 C    0.875997    9.295973    4.301988
 C    4.371987   12.357964   17.449951
 C   18.724947    8.139977   13.672960
 C    9.180973   14.358959   19.353945
 C    5.684984    7.392979    2.300993
 C    1.389996   11.974966   13.672960
 C   10.933969    5.754983   19.353945
 C   14.429958   12.721963    2.300993
 C   18.724947   11.974966    6.441981
 C    9.180973    5.754983    0.760998
 C    5.684984   12.721963   17.813948
 C    1.389996    8.139977    6.441981
 C   10.933969   14.358959    0.760998
 C   14.429958    7.392979   17.813948
 C    8.139977    6.441981    1.389996
 C   14.358959    0.760998   10.933969
 C    7.392979   17.813948   14.429958
 C   11.974966    6.441981   18.724947
 C    5.754983    0.760998    9.180973
 C   12.721963   17.813948    5.684984
 C   11.974966   13.672960    1.389996
 C    5.754983   19.353945   10.933969
 C   12.721963    2.300993   14.429958
 C    8.139977   13.672960   18.724947
 C   14.358959   19.353945    9.180973
 C    7.392979    2.300993    5.684984
 C    6.441981   18.724947   11.974966
 C    0.760998    9.180973    5.754983
 C   17.813948    5.684984   12.721963
 C    6.441981    1.389996    8.139977
 C    0.760998   10.933969   14.358959
 C   17.813948   14.429958    7.392979
 C   13.672960   18.724947    8.139977
 C   19.353945    9.180973   14.358959
 C    2.300993    5.684984    7.392979
 C   13.672960    1.389996   11.974966
 C   19.353945   10.933969    5.754983
 C    2.300993   14.429958   12.721963
 C   11.974966    1.389996   13.672960
 C    5.754983   10.933969   19.353945
 C   12.721963   14.429958    2.300993
 C    8.139977   18.724947   13.672960
 C   14.358959    9.180973   19.353945
 C    7.392979    5.684984    2.300993
 C    8.139977    1.389996    6.441981
 C   14.358959   10.933969    0.760998
 C    7.392979   14.429958   17.813948
 C   11.974966   18.724947    6.441981
 C    5.754983    9.180973    0.760998
 C   12.721963    5.684984   17.813948
 C   13.672960   11.974966    1.389996
 C   19.353945    5.754983   10.933969
 C    2.300993   12.721963   14.429958
 C   13.672960    8.139977   18.724947
 C   19.353945   14.358959    9.180973
 C    2.300993    7.392979    5.684984
 C    6.441981    8.139977    1.389996
 C    0.760998   14.358959   10.933969
 C   17.813948    7.392979   14.429958
 C    6.441981   11.974966   18.724947
 C    0.760998    5.754983    9.180973
 C   17.813948   12.721963    5.684984
 C    1.389996   13.672960   11.974966
 C   10.933969   19.353945    5.754983
 C   14.429958    2.300993   12.721963
 C   18.724947   13.672960    8.139977
 C    9.180973   19.353945   14.358959
 C    5.684984    2.300993    7.392979
 C    1.389996    6.441981    8.139977
 C   10.933969    0.760998   14.358959
 C   14.429958   17.813948    7.392979
 C   18.724947    6.441981   11.974966
 C    9.180973    0.760998    5.754983
 C    5.684984   17.813948   12.721963
 C   11.446966    1.916994   16.499952
 C    0.875997   15.812953   10.817968
 C    4.371987    2.664992    7.756978
 C    8.667975   18.197948   16.499952
 C   19.238945    4.301988   10.817968
 C   15.742954   17.449951    7.756978
 C   11.446966   18.197948    3.614990
 C    0.875997    4.301988    9.295973
 C    4.371987   17.449951   12.357964
 C    8.667975    1.916994    3.614990
 C   19.238945   15.812953    9.295973
 C   15.742954    2.664992   12.357964
 C    1.916994    3.614990    8.667975
 C   15.812953    9.295973   19.238945
 C    2.664992   12.357964   15.742954
 C   18.197948    3.614990   11.446966
 C    4.301988    9.295973    0.875997
 C   17.449951   12.357964    4.371987
 C   18.197948   16.499952    8.667975
 C    4.301988   10.817968   19.238945
 C   17.449951    7.756978   15.742954
 C    1.916994   16.499952   11.446966
 C   15.812953   10.817968    0.875997
 C    2.664992    7.756978    4.371987
 C    3.614990   11.446966   18.197948
 C    9.295973    0.875997    4.301988
 C   12.357964    4.371987   17.449951
 C    3.614990    8.667975    1.916994
 C    9.295973   19.238945   15.812953
 C   12.357964   15.742954    2.664992
 C   16.499952   11.446966    1.916994
 C   10.817968    0.875997   15.812953
 C    7.756978    4.371987    2.664992
 C   16.499952    8.667975   18.197948
 C   10.817968   19.238945    4.301988
 C    7.756978   15.742954   17.449951
 C   16.204952    5.606984   14.507957
 C    3.908988   14.507957   14.507957
 C    3.908988    5.606984    5.606984
 C   16.204952   14.507957    5.606984
 C   14.507957   16.204952    5.606984
 C   14.507957    3.908988   14.507957
 C    5.606984    3.908988    5.606984
 C    5.606984   16.204952   14.507957
 C    5.606984   14.507957   16.204952
 C   14.507957   14.507957    3.908988
 C    5.606984    5.606984    3.908988
 C   14.507957    5.606984   16.204952
 C   15.664954    6.147982   15.664954
 C    4.449987   13.966959   15.664954
 C   15.664954   13.966959    4.449987
 C    4.449987    6.147982    4.449987
 C    6.147982    4.449987    4.449987
 C   13.966959    4.449987   15.664954
 C   13.966959   15.664954    4.449987
 C    6.147982   15.664954   15.664954
 C    4.449987   15.664954   13.966959
 C    4.449987    4.449987    6.147982
 C   15.664954   15.664954    6.147982
 C   15.664954    4.449987   13.966959
 C   12.320964    7.793978   19.064945
 C    7.793978   12.320964   19.064945
 C    7.793978    7.793978    1.049997
 C   12.320964   12.320964    1.049997
 C   19.064945   12.320964    7.793978
 C   19.064945    7.793978   12.320964
 C    1.049997    7.793978    7.793978
 C    1.049997   12.320964   12.320964
 C    7.793978   19.064945   12.320964
 C   12.320964   19.064945    7.793978
 C    7.793978    1.049997    7.793978
 C   12.320964    1.049997   12.320964
 C   17.850948    2.263994   11.106969
 C    2.263994   17.850948   11.106969
 C   17.850948   17.850948    9.007975
 C    2.263994    2.263994    9.007975
 C    2.263994    9.007975    2.263994
 C   17.850948    9.007975   17.850948
 C   17.850948   11.106969    2.263994
 C    2.263994   11.106969   17.850948
 C    9.007975   17.850948   17.850948
 C    9.007975    2.263994    2.263994
 C   11.106969   17.850948    2.263994
 C   11.106969    2.263994   17.850948
 C    0.000000   13.553960   10.056972
 C   20.115000   13.553960   10.056972
 C    0.000000    6.560981   10.056972
 C   20.115000    6.560981   10.056972
 C   10.056972    0.000000   13.553960
 C   10.056972   20.115000   13.553960
 C   10.056972    0.000000    6.560981
 C   10.056972   20.115000    6.560981
 C   13.553960   10.056972    0.000000
 C   13.553960   10.056972   20.115000
 C    6.560981   10.056972    0.000000
 C    6.560981   10.056972   20.115000
 C    3.495990   10.056972    0.000000
 C    3.495990   10.056972   20.115000
 C   16.618952   10.056972    0.000000
 C   16.618952   10.056972   20.115000
 C   10.056972    0.000000   16.618952
 C   10.056972   20.115000   16.618952
 C   10.056972    0.000000    3.495990
 C   10.056972   20.115000    3.495990
 C    0.000000    3.495990   10.056972
 C   20.115000    3.495990   10.056972
 C    0.000000   16.618952   10.056972
 C   20.115000   16.618952   10.056972
 C   10.056972   16.618952    0.000000
 C   10.056972   16.618952   20.115000
 C   10.056972    3.495990    0.000000
 C   10.056972    3.495990   20.115000
 C    0.000000   10.056972   16.618952
 C   20.115000   10.056972   16.618952
 C    0.000000   10.056972    3.495990
 C   20.115000   10.056972    3.495990
 C   16.618952    0.000000   10.056972
 C   16.618952   20.115000   10.056972
 C    3.495990    0.000000   10.056972
 C    3.495990   20.115000   10.056972
 C    6.560981    0.000000   10.056972
 C    6.560981   20.115000   10.056972
 C   13.553960    0.000000   10.056972
 C   13.553960   20.115000   10.056972
 C    0.000000   10.056972   13.553960
 C   20.115000   10.056972   13.553960
 C    0.000000   10.056972    6.560981
 C   20.115000   10.056972    6.560981
 C   10.056972    6.560981    0.000000
 C   10.056972    6.560981   20.115000
 C   10.056972   13.553960    0.000000
 C   10.056972   13.553960   20.115000
 C    0.000000   12.025966   10.056972
 C   20.115000   12.025966   10.056972
 C    0.000000    8.088976   10.056972
 C   20.115000    8.088976   10.056972
 C   10.056972    0.000000   12.025966
 C   10.056972   20.115000   12.025966
 C   10.056972    0.000000    8.088976
 C   10.056972   20.115000    8.088976
 C   12.025966   10.056972    0.000000
 C   12.025966   10.056972   20.115000
 C    8.088976   10.056972    0.000000
 C    8.088976   10.056972   20.115000
 C    1.968994   10.056972    0.000000
 C    1.968994   10.056972   20.115000
 C   18.145947   10.056972    0.000000
 C   18.145947   10.056972   20.115000
 C   10.056972    0.000000   18.145947
 C   10.056972   20.115000   18.145947
 C   10.056972    0.000000    1.968994
 C   10.056972   20.115000    1.968994
 C    0.000000    1.968994   10.056972
 C   20.115000    1.968994   10.056972
 C    0.000000   18.145947   10.056972
 C   20.115000   18.145947   10.056972
 C   10.056972   18.145947    0.000000
 C   10.056972   18.145947   20.115000
 C   10.056972    1.968994    0.000000
 C   10.056972    1.968994   20.115000
 C    0.000000   10.056972   18.145947
 C   20.115000   10.056972   18.145947
 C    0.000000   10.056972    1.968994
 C   20.115000   10.056972    1.968994
 C   18.145947    0.000000   10.056972
 C   18.145947   20.115000   10.056972
 C    1.968994    0.000000   10.056972
 C    1.968994   20.115000   10.056972
 C    8.088976    0.000000   10.056972
 C    8.088976   20.115000   10.056972
 C   12.025966    0.000000   10.056972
 C   12.025966   20.115000   10.056972
 C    0.000000   10.056972   12.025966
 C   20.115000   10.056972   12.025966
 C    0.000000   10.056972    8.088976
 C   20.115000   10.056972    8.088976
 C   10.056972    8.088976    0.000000
 C   10.056972    8.088976   20.115000
 C   10.056972   12.025966    0.000000
 C   10.056972   12.025966   20.115000
 C    1.341996   18.772945   10.394970
 C    3.818989   16.295952   12.904963
 C   18.772945    1.341996   10.394970
 C   16.295952    3.818989   12.904963
 C   18.772945   18.772945    9.719973
 C   16.295952   16.295952    7.209980
 C    1.341996    1.341996    9.719973
 C    3.818989    3.818989    7.209980
 C   10.394970    1.341996   18.772945
 C   12.904963    3.818989   16.295952
 C   10.394970   18.772945    1.341996
 C   12.904963   16.295952    3.818989
 C    9.719973   18.772945   18.772945
 C    7.209980   16.295952   16.295952
 C    9.719973    1.341996    1.341996
 C    7.209980    3.818989    3.818989
 C   18.772945   10.394970    1.341996
 C   16.295952   12.904963    3.818989
 C    1.341996   10.394970   18.772945
 C    3.818989   12.904963   16.295952
 C   18.772945    9.719973   18.772945
 C   16.295952    7.209980   16.295952
 C    1.341996    9.719973    1.341996
 C    3.818989    7.209980    3.818989
 C    8.714975   11.399966   19.776943
 C    6.237982   13.876959   17.266951
 C   11.399966    8.714975   19.776943
 C   13.876959    6.237982   17.266951
 C    8.714975    8.714975    0.337999
 C    6.237982    6.237982    2.847992
 C   11.399966   11.399966    0.337999
 C   13.876959   13.876959    2.847992
 C   11.399966    0.337999   11.399966
 C   13.876959    2.847992   13.876959
 C    8.714975    0.337999    8.714975
 C    6.237982    2.847992    6.237982
 C    8.714975   19.776943   11.399966
 C    6.237982   17.266951   13.876959
 C   11.399966   19.776943    8.714975
 C   13.876959   17.266951    6.237982
 C    0.337999    8.714975    8.714975
 C    2.847992    6.237982    6.237982
 C    0.337999   11.399966   11.399966
 C    2.847992   13.876959   13.876959
 C   19.776943    8.714975   11.399966
 C   17.266951    6.237982   13.876959
 C   19.776943   11.399966    8.714975
 C   17.266951   13.876959    6.237982
 C   20.875998   14.358959   10.933969
 C   -0.761055    5.754983   10.933969
 C   20.875998    5.754983    9.180973
 C    9.180973   -0.761055   14.358959
 C   10.933969   20.875998   14.358959
 C   10.933969   -0.761055    5.754983
 C    9.180973   20.875998    5.754983
 C   14.358959   10.933969   20.875998
 C    5.754983   10.933969   -0.761055
 C    4.301988    9.295973   20.990997
 C   15.812953    9.295973   -0.876055
 C   -0.876055    4.301988   10.817968
 C   20.990997    4.301988    9.295973
 C   -0.876055    9.295973   15.812953
 C   20.990997   10.817968   15.812953
 C   -0.876055   10.817968    4.301988
 C   20.990997    9.295973    4.301988
 C    5.754983   -0.761055   10.933969
 C    5.754983   20.875998    9.180973
 C   14.358959   -0.761055    9.180973
 C   14.358959   20.875998   10.933969
 C   10.933969    5.754983   -0.761055
 C    9.180973    5.754983   20.875998
 C    9.180973   14.358959   -0.761055
 C   10.933969   14.358959   20.875998
 C   -0.338057   11.399966    8.714975
 C   11.399966    8.714975   -0.338057
 C    1.341996   10.394970   -1.342054
 C    9.719973   -1.342054   18.772945
 C   10.394970   21.456995   18.772945
 C   10.394970   -1.342054    1.341996
 C    9.719973   21.456995    1.341996
 C   -1.342054   18.772945    9.719973
 C   21.456995   18.772945   10.394970
 C    9.719973   18.772945   -1.342054
 C   10.394970   18.772945   21.456995
 C   10.394970    1.341996   -1.342054
 C    9.719973    1.341996   21.456995
 C   18.772945   -1.342054    9.719973
 C   18.772945   21.456995   10.394970
 C    1.341996   -1.342054   10.394970
 C    1.341996   21.456995    9.719973
 C   -0.338057    8.714975   11.399966
