96
 Atoms.
 C   11.084410   10.063372    6.193229
 C    0.641024    1.662062    6.193229
 C    0.641024   10.063372    5.532205
 C   11.084410    1.662062    5.532205
 C    6.193229   11.084410   10.063372
 C    6.193229    0.641024    1.662062
 C    5.532205    0.641024   10.063372
 C    5.532205   11.084410    1.662062
 C   10.063372    6.193229   11.084410
 C    1.662062    6.193229    0.641024
 C   10.063372    5.532205    0.641024
 C    1.662062    5.532205   11.084410
 C    4.201156    5.221193   11.394422
 C    7.524278    6.503240   11.394422
 C    4.201156    6.503240    0.330012
 C    7.524278    5.221193    0.330012
 C    5.221193    0.330012    7.524278
 C    6.503240    0.330012    4.201156
 C    6.503240   11.394422    7.524278
 C    5.221193   11.394422    4.201156
 C    0.330012    4.201156    6.503240
 C    0.330012    7.524278    5.221193
 C   11.394422    4.201156    5.221193
 C   11.394422    7.524278    6.503240
 C    6.503240    7.524278   11.394422
 C    5.221193    4.201156   11.394422
 C    5.221193    7.524278    0.330012
 C    6.503240    4.201156    0.330012
 C   11.394422    6.503240    7.524278
 C   11.394422    5.221193    4.201156
 C    0.330012    5.221193    7.524278
 C    0.330012    6.503240    4.201156
 C    7.524278   11.394422    6.503240
 C    4.201156   11.394422    5.221193
 C    7.524278    0.330012    5.221193
 C    4.201156    0.330012    6.503240
 C    1.662062    0.641024    6.193229
 C   10.063372   11.084410    6.193229
 C    1.662062   11.084410    5.532205
 C   10.063372    0.641024    5.532205
 C    0.641024    5.532205   10.063372
 C   11.084410    5.532205    1.662062
 C   11.084410    6.193229   10.063372
 C    0.641024    6.193229    1.662062
 C    5.532205    1.662062   11.084410
 C    5.532205   10.063372    0.641024
 C    6.193229    1.662062    0.641024
 C    6.193229   10.063372   11.084410
 C    9.778361    8.793325    7.809289
 C   10.771399    8.793325    6.816252
 C    1.946072    2.931108    7.809289
 C    0.954035    2.931108    6.816252
 C    1.946072    8.793325    3.916145
 C    0.954035    8.793325    4.908182
 C    9.778361    2.931108    3.916145
 C   10.771399    2.931108    4.908182
 C    7.809289    9.778361    8.793325
 C    6.816252   10.771399    8.793325
 C    7.809289    1.946072    2.931108
 C    6.816252    0.954035    2.931108
 C    3.916145    1.946072    8.793325
 C    4.908182    0.954035    8.793325
 C    3.916145    9.778361    2.931108
 C    4.908182   10.771399    2.931108
 C    8.793325    7.809289    9.778361
 C    8.793325    6.816252   10.771399
 C    2.931108    7.809289    1.946072
 C    2.931108    6.816252    0.954035
 C    8.793325    3.916145    1.946072
 C    8.793325    4.908182    0.954035
 C    2.931108    3.916145    9.778361
 C    2.931108    4.908182   10.771399
 C    7.809289    8.793325    9.778361
 C    6.816252    8.793325   10.771399
 C    3.916145    2.931108    9.778361
 C    4.908182    2.931108   10.771399
 C    3.916145    8.793325    1.946072
 C    4.908182    8.793325    0.954035
 C    7.809289    2.931108    1.946072
 C    6.816252    2.931108    0.954035
 C    9.778361    7.809289    8.793325
 C   10.771399    6.816252    8.793325
 C    9.778361    3.916145    2.931108
 C   10.771399    4.908182    2.931108
 C    1.946072    3.916145    8.793325
 C    0.954035    4.908182    8.793325
 C    1.946072    7.809289    2.931108
 C    0.954035    6.816252    2.931108
 C    8.793325    9.778361    7.809289
 C    8.793325   10.771399    6.816252
 C    2.931108    9.778361    3.916145
 C    2.931108   10.771399    4.908182
 C    8.793325    1.946072    3.916145
 C    8.793325    0.954035    4.908182
 C    2.931108    1.946072    7.809289
 C    2.931108    0.954035    6.816252
