96
Atoms. Timestep: 24759
C 7.49796 2.70299 9.23592
C 2.70299 7.49796 9.23592
C 2.41269 2.41268 0.653403
C 7.60316 7.60316 0.841111
C 9.23592 7.49796 2.70299
C 9.23592 2.70299 7.49796
C 0.653403 2.41268 2.41269
C 0.841112 7.60316 7.60316
C 2.70299 9.23592 7.49796
C 7.49796 9.23592 2.70299
C 2.41269 0.653402 2.41269
C 7.60316 0.84111 7.60316
C 8.81205 1.4001 7.06571
C 1.4001 8.81205 7.06571
C 8.73688 8.73688 3.23363
C 1.16401 1.16401 2.90658
C 1.16401 2.90658 1.16401
C 8.73688 3.23363 8.73688
C 8.81205 7.06571 1.4001
C 1.4001 7.06571 8.81205
C 3.23363 8.73688 8.73688
C 2.90658 1.16401 1.16401
C 7.06571 8.81205 1.4001
C 7.06571 1.4001 8.81205
C 11.6946 7.53264 5.78641
C 10.7388 7.31655 4.58824
C 11.6454 2.60618 4.34645
C 10.7403 2.85564 5.60097
C 5.78641 11.6946 7.53264
C 4.58824 10.7388 7.31656
C 4.34645 11.6454 2.60618
C 5.60097 10.7403 2.85564
C 7.53264 5.78641 11.6946
C 7.31656 4.58824 10.7388
C 2.60618 4.34645 11.6454
C 2.85564 5.60097 10.7403
C 1.0624 4.5111 11.8434
C 1.29879 5.48736 10.6714
C 9.06355 5.62275 11.9486
C 8.87867 4.76137 10.6444
C 5.62275 11.9486 9.06355
C 4.76137 10.6444 8.87867
C 4.5111 11.8434 1.0624
C 5.48736 10.6714 1.29879
C 11.8434 1.06239 4.5111
C 10.6714 1.29879 5.48736
C 11.9486 9.06354 5.62275
C 10.6444 8.87867 4.76137
C 5.62275 9.06354 11.9486
C 4.76137 8.87867 10.6444
C 4.5111 1.06239 11.8434
C 5.48736 1.29879 10.6714
C 11.9486 5.62275 9.06355
C 10.6444 4.76137 8.87867
C 11.8434 4.5111 1.0624
C 10.6714 5.48736 1.29879
C 9.06355 11.9486 5.62275
C 8.87867 10.6444 4.76137
C 1.0624 11.8434 4.5111
C 1.29879 10.6714 5.48736
C 2.60618 11.6454 4.34645
C 2.85564 10.7403 5.60097
C 7.53264 11.6946 5.78641
C 7.31656 10.7388 4.58824
C 11.6946 5.78641 7.53264
C 10.7388 4.58824 7.31656
C 11.6454 4.34645 2.60618
C 10.7403 5.60097 2.85564
C 4.34645 2.60618 11.6454
C 5.60097 2.85564 10.7403
C 5.78641 7.53264 11.6946
C 4.58824 7.31655 10.7388
C 0.660426 9.58461 6.10759
C 9.58461 0.660425 6.10759
C 9.47474 9.47473 4.23408
C 0.450657 0.450656 3.91861
C 6.10759 0.660425 9.58461
C 6.10759 9.58461 0.660426
C 4.23408 9.47473 9.47474
C 3.91861 0.450657 0.450658
C 9.58461 6.10759 0.660426
C 0.660426 6.10759 9.58461
C 9.47474 4.23407 9.47474
C 0.450658 3.91861 0.450658
C 3.45948 6.725 10.1755
C 6.725 3.45948 10.1755
C 3.16959 3.16959 -0.315209
C 6.92427 6.92427 -0.230279
C 6.92427 -0.23028 6.92427
C 3.16959 -0.31521 3.16959
C 3.45948 10.1755 6.725
C 6.725 10.1755 3.45948
C -0.315209 3.16959 3.16959
C -0.230278 6.92427 6.92427
C 10.1755 3.45948 6.725
C 10.1755 6.725 3.45948
